tests/fuzzer/corpus_json/24_columnar_05_radial_chain_20nodes.json
{
  "version": "1.0",
  "type": "input",
  "is_batch": false,
  "attributes": {
    "node": [
      "id",
      "u_rated"
    ],
    "source": [
      "id",
      "node",
      "status",
      "u_ref",
      "u_ref_angle",
      "sk",
      "rx_ratio",
      "z01_ratio"
    ],
    "line": [
      "id",
      "from_node",
      "to_node",
      "from_status",
      "to_status",
      "r1",
      "x1",
      "c1",
      "tan1",
      "r0",
      "x0",
      "c0",
      "tan0",
      "i_n"
    ],
    "sym_load": [
      "id",
      "node",
      "status",
      "type",
      "p_specified",
      "q_specified"
    ]
  },
  "data": {
    "node": [
      [
        0,
        10000.0
      ],
      [
        1,
        10000.0
      ],
      [
        2,
        10000.0
      ],
      [
        3,
        10000.0
      ],
      [
        4,
        10000.0
      ],
      [
        5,
        10000.0
      ],
      [
        6,
        10000.0
      ],
      [
        7,
        10000.0
      ],
      [
        8,
        10000.0
      ],
      [
        9,
        10000.0
      ],
      [
        10,
        10000.0
      ],
      [
        11,
        10000.0
      ],
      [
        12,
        10000.0
      ],
      [
        13,
        10000.0
      ],
      [
        14,
        10000.0
      ],
      [
        15,
        10000.0
      ],
      [
        16,
        10000.0
      ],
      [
        17,
        10000.0
      ],
      [
        18,
        10000.0
      ],
      [
        19,
        10000.0
      ]
    ],
    "source": [
      [
        20,
        0,
        1,
        1.0,
        0.0,
        10000000.0,
        0.1,
        1.0
      ]
    ],
    "line": [
      [
        21,
        0,
        1,
        1,
        1,
        0.1,
        0.1,
        1e-09,
        0.0,
        0.3,
        0.3,
        1e-09,
        0.0,
        400.0
      ],
      [
        22,
        1,
        2,
        1,
        1,
        0.1,
        0.1,
        1e-09,
        0.0,
        0.3,
        0.3,
        1e-09,
        0.0,
        400.0
      ],
      [
        23,
        2,
        3,
        1,
        1,
        0.1,
        0.1,
        1e-09,
        0.0,
        0.3,
        0.3,
        1e-09,
        0.0,
        400.0
      ],
      [
        24,
        3,
        4,
        1,
        1,
        0.1,
        0.1,
        1e-09,
        0.0,
        0.3,
        0.3,
        1e-09,
        0.0,
        400.0
      ],
      [
        25,
        4,
        5,
        1,
        1,
        0.1,
        0.1,
        1e-09,
        0.0,
        0.3,
        0.3,
        1e-09,
        0.0,
        400.0
      ],
      [
        26,
        5,
        6,
        1,
        1,
        0.1,
        0.1,
        1e-09,
        0.0,
        0.3,
        0.3,
        1e-09,
        0.0,
        400.0
      ],
      [
        27,
        6,
        7,
        1,
        1,
        0.1,
        0.1,
        1e-09,
        0.0,
        0.3,
        0.3,
        1e-09,
        0.0,
        400.0
      ],
      [
        28,
        7,
        8,
        1,
        1,
        0.1,
        0.1,
        1e-09,
        0.0,
        0.3,
        0.3,
        1e-09,
        0.0,
        400.0
      ],
      [
        29,
        8,
        9,
        1,
        1,
        0.1,
        0.1,
        1e-09,
        0.0,
        0.3,
        0.3,
        1e-09,
        0.0,
        400.0
      ],
      [
        30,
        9,
        10,
        1,
        1,
        0.1,
        0.1,
        1e-09,
        0.0,
        0.3,
        0.3,
        1e-09,
        0.0,
        400.0
      ],
      [
        31,
        10,
        11,
        1,
        1,
        0.1,
        0.1,
        1e-09,
        0.0,
        0.3,
        0.3,
        1e-09,
        0.0,
        400.0
      ],
      [
        32,
        11,
        12,
        1,
        1,
        0.1,
        0.1,
        1e-09,
        0.0,
        0.3,
        0.3,
        1e-09,
        0.0,
        400.0
      ],
      [
        33,
        12,
        13,
        1,
        1,
        0.1,
        0.1,
        1e-09,
        0.0,
        0.3,
        0.3,
        1e-09,
        0.0,
        400.0
      ],
      [
        34,
        13,
        14,
        1,
        1,
        0.1,
        0.1,
        1e-09,
        0.0,
        0.3,
        0.3,
        1e-09,
        0.0,
        400.0
      ],
      [
        35,
        14,
        15,
        1,
        1,
        0.1,
        0.1,
        1e-09,
        0.0,
        0.3,
        0.3,
        1e-09,
        0.0,
        400.0
      ],
      [
        36,
        15,
        16,
        1,
        1,
        0.1,
        0.1,
        1e-09,
        0.0,
        0.3,
        0.3,
        1e-09,
        0.0,
        400.0
      ],
      [
        37,
        16,
        17,
        1,
        1,
        0.1,
        0.1,
        1e-09,
        0.0,
        0.3,
        0.3,
        1e-09,
        0.0,
        400.0
      ],
      [
        38,
        17,
        18,
        1,
        1,
        0.1,
        0.1,
        1e-09,
        0.0,
        0.3,
        0.3,
        1e-09,
        0.0,
        400.0
      ],
      [
        39,
        18,
        19,
        1,
        1,
        0.1,
        0.1,
        1e-09,
        0.0,
        0.3,
        0.3,
        1e-09,
        0.0,
        400.0
      ]
    ],
    "sym_load": [
      [
        40,
        1,
        1,
        0,
        1000.0,
        500.0
      ],
      [
        41,
        2,
        1,
        0,
        1000.0,
        500.0
      ],
      [
        42,
        3,
        1,
        0,
        1000.0,
        500.0
      ],
      [
        43,
        4,
        1,
        0,
        1000.0,
        500.0
      ],
      [
        44,
        5,
        1,
        0,
        1000.0,
        500.0
      ],
      [
        45,
        6,
        1,
        0,
        1000.0,
        500.0
      ],
      [
        46,
        7,
        1,
        0,
        1000.0,
        500.0
      ],
      [
        47,
        8,
        1,
        0,
        1000.0,
        500.0
      ],
      [
        48,
        9,
        1,
        0,
        1000.0,
        500.0
      ],
      [
        49,
        10,
        1,
        0,
        1000.0,
        500.0
      ],
      [
        50,
        11,
        1,
        0,
        1000.0,
        500.0
      ],
      [
        51,
        12,
        1,
        0,
        1000.0,
        500.0
      ],
      [
        52,
        13,
        1,
        0,
        1000.0,
        500.0
      ],
      [
        53,
        14,
        1,
        0,
        1000.0,
        500.0
      ],
      [
        54,
        15,
        1,
        0,
        1000.0,
        500.0
      ],
      [
        55,
        16,
        1,
        0,
        1000.0,
        500.0
      ],
      [
        56,
        17,
        1,
        0,
        1000.0,
        500.0
      ],
      [
        57,
        18,
        1,
        0,
        1000.0,
        500.0
      ],
      [
        58,
        19,
        1,
        0,
        1000.0,
        500.0
      ]
    ]
  }
}
